<?xml version="1.0" encoding="UTF-8"?>

<!-- generated on 2024-05-30 16:05:42 by Eclipse SUMO netconvert Version 1.20.0
<configuration xmlns:xsi="http://www.w3.org/2001/XMLSchema-instance" xsi:noNamespaceSchemaLocation="http://sumo.dlr.de/xsd/netconvertConfiguration.xsd">

    <input>
        <osm-files value="map.osm"/>
    </input>

    <output>
        <output-file value="map.net.xml"/>
    </output>

    <projection>
        <proj.utm value="true"/>
    </projection>

</configuration>
-->

<net version="1.20" junctionCornerDetail="5" limitTurnSpeed="5.50" xmlns:xsi="http://www.w3.org/2001/XMLSchema-instance" xsi:noNamespaceSchemaLocation="http://sumo.dlr.de/xsd/net_file.xsd">

    <location netOffset="-637740.27,-4378865.11" convBoundary="0.00,0.00,5168.88,5739.45" origBoundary="28.603766,39.547715,28.664029,39.599823" projParameter="+proj=utm +zone=35 +ellps=WGS84 +datum=WGS84 +units=m +no_defs"/>

    <type id="highway.living_street" priority="2" numLanes="1" speed="2.78" disallow="tram rail_urban rail rail_electric rail_fast ship container cable_car subway aircraft wheelchair scooter drone" oneway="0"/>
    <type id="highway.residential" priority="3" numLanes="1" speed="13.89" disallow="tram rail_urban rail rail_electric rail_fast ship container cable_car subway aircraft wheelchair scooter drone" oneway="0"/>
    <type id="highway.secondary" priority="11" numLanes="1" speed="27.78" disallow="tram rail_urban rail rail_electric rail_fast ship container cable_car subway aircraft wheelchair scooter drone" oneway="0"/>
    <type id="highway.service" priority="1" numLanes="1" speed="5.56" allow="pedestrian delivery bicycle" oneway="0"/>
    <type id="highway.tertiary" priority="10" numLanes="1" speed="22.22" disallow="tram rail_urban rail rail_electric rail_fast ship container cable_car subway aircraft wheelchair scooter drone" oneway="0"/>
    <type id="highway.tertiary_link" priority="5" numLanes="1" speed="22.22" disallow="tram rail_urban rail rail_electric rail_fast ship container cable_car subway aircraft wheelchair scooter drone" oneway="0"/>
    <type id="highway.track" priority="1" numLanes="1" speed="5.56" allow="pedestrian motorcycle moped bicycle" oneway="0"/>
    <type id="highway.trunk" priority="13" numLanes="2" speed="27.78" disallow="pedestrian bicycle tram rail_urban rail rail_electric rail_fast ship container cable_car subway aircraft wheelchair scooter drone" oneway="0"/>
    <type id="highway.trunk_link" priority="8" numLanes="1" speed="22.22" disallow="pedestrian bicycle tram rail_urban rail rail_electric rail_fast ship container cable_car subway aircraft wheelchair scooter drone" oneway="0"/>
    <type id="highway.unclassified" priority="4" numLanes="1" speed="13.89" disallow="tram rail_urban rail rail_electric rail_fast ship container cable_car subway aircraft wheelchair scooter drone" oneway="0"/>

    <edge id=":10006001882_0" function="internal">
        <lane id=":10006001882_0_0" index="0" disallow="tram rail_urban rail rail_electric rail_fast ship container cable_car subway aircraft wheelchair scooter drone" speed="7.47" length="5.94" shape="1891.73,5214.34 1890.83,5212.70 1890.29,5211.23 1890.12,5209.91 1890.31,5208.76"/>
    </edge>
    <edge id=":10006001882_1" function="internal">
        <lane id=":10006001882_1_0" index="0" disallow="tram rail_urban rail rail_electric rail_fast ship container cable_car subway aircraft wheelchair scooter drone" speed="22.22" length="6.33" shape="1887.43,5214.37 1888.43,5212.78 1889.10,5211.67 1889.65,5210.51 1890.31,5208.76"/>
    </edge>
    <edge id=":10006001884_0" function="internal">
        <lane id=":10006001884_0_0" index="0" disallow="tram rail_urban rail rail_electric rail_fast ship container cable_car subway aircraft wheelchair scooter drone" speed="22.22" length="7.73" shape="1900.12,5217.17 1893.70,5221.48"/>
    </edge>
    <edge id=":10006001884_1" function="internal">
        <lane id=":10006001884_1_0" index="0" disallow="tram rail_urban rail rail_electric rail_fast ship container cable_car subway aircraft wheelchair scooter drone" speed="6.07" length="7.84" shape="1900.12,5217.17 1897.94,5218.29 1896.06,5218.59 1894.50,5218.07 1893.24,5216.73"/>
    </edge>
    <edge id=":10006001885_0" function="internal">
        <lane id=":10006001885_0_0" index="0" disallow="tram rail_urban rail rail_electric rail_fast ship container cable_car subway aircraft wheelchair scooter drone" speed="8.30" length="9.06" shape="1911.59,5192.57 1911.28,5194.85 1911.56,5196.99 1912.45,5199.00 1913.93,5200.88"/>
    </edge>
    <edge id=":10006001885_1" function="internal">
        <lane id=":10006001885_1_0" index="0" disallow="tram rail_urban rail rail_electric rail_fast ship container cable_car subway aircraft wheelchair scooter drone" speed="22.22" length="9.94" shape="1911.59,5192.57 1909.08,5202.18"/>
    </edge>
    <edge id=":10006001885_2" function="internal">
        <lane id=":10006001885_2_0" index="0" disallow="tram rail_urban rail rail_electric rail_fast ship container cable_car subway aircraft wheelchair scooter drone" speed="18.05" length="9.93" shape="1906.70,5194.08 1913.93,5200.88"/>
    </edge>
    <edge id=":10006001885_3" function="internal">
        <lane id=":10006001885_3_0" index="0" disallow="tram rail_urban rail rail_electric rail_fast ship container cable_car subway aircraft wheelchair scooter drone" speed="7.88" length="8.92" shape="1906.70,5194.08 1908.23,5195.78 1909.13,5197.69 1909.41,5199.83 1909.08,5202.18"/>
    </edge>
    <edge id=":10006001888_0" function="internal">
        <lane id=":10006001888_0_0" index="0" allow="pedestrian delivery bicycle" speed="5.56" length="6.81" shape="1897.55,5229.91 1896.62,5231.67 1896.20,5232.99 1896.00,5234.39 1895.69,5236.39"/>
    </edge>
    <edge id=":10006001888_1" function="internal">
        <lane id=":10006001888_1_0" index="0" allow="pedestrian delivery bicycle" speed="5.45" length="7.78" shape="1897.55,5229.91 1895.95,5232.08 1894.43,5233.12 1892.99,5233.05 1891.64,5231.86"/>
    </edge>
    <edge id=":10006001888_2" function="internal">
        <lane id=":10006001888_2_0" index="0" allow="pedestrian delivery bicycle" speed="5.56" length="4.16" shape="1892.55,5235.79 1892.64,5234.73 1892.52,5233.73 1892.19,5232.77 1891.64,5231.86"/>
    </edge>
    <edge id=":10006001888_3" function="internal">
        <lane id=":10006001888_3_0" index="0" allow="pedestrian delivery bicycle" speed="3.65" length="4.67" shape="1892.55,5235.79 1893.56,5234.76 1894.42,5234.52 1895.13,5235.06 1895.69,5236.39"/>
    </edge>
    <edge id=":10006001889_0" function="internal">
        <lane id=":10006001889_0_0" index="0" disallow="tram rail_urban rail rail_electric rail_fast ship container cable_car subway aircraft wheelchair scooter drone" speed="22.22" length="5.80" shape="1898.71,5193.33 1899.80,5192.00 1900.45,5191.02 1900.97,5189.96 1901.64,5188.37"/>
    </edge>
    <edge id=":10006001889_1" function="internal">
        <lane id=":10006001889_1_0" index="0" disallow="tram rail_urban rail rail_electric rail_fast ship container cable_car subway aircraft wheelchair scooter drone" speed="6.02" length="5.19" shape="1898.71,5193.33 1899.63,5192.54 1900.73,5192.11 1902.03,5192.05 1903.50,5192.34"/>
    </edge>
    <edge id=":10062482010_0" function="internal">
        <lane id=":10062482010_0_0" index="0" disallow="tram rail_urban rail rail_electric rail_fast ship container cable_car subway aircraft wheelchair scooter drone" speed="13.89" length="15.58" shape="1224.92,4347.93 1222.72,4344.78 1220.57,4341.46 1218.56,4338.06 1216.79,4334.66"/>
    </edge>
    <edge id=":10062482010_1" function="internal">
        <lane id=":10062482010_1_0" index="0" disallow="tram rail_urban rail rail_electric rail_fast ship container cable_car subway aircraft wheelchair scooter drone" speed="7.50" length="4.73" shape="1224.92,4347.93 1222.75,4343.84 1222.75,4343.73"/>
    </edge>
    <edge id=":10062482010_2" function="internal">
        <lane id=":10062482010_2_0" index="0" disallow="tram rail_urban rail rail_electric rail_fast ship container cable_car subway aircraft wheelchair scooter drone" speed="3.65" length="1.44" shape="1224.92,4347.93 1224.86,4346.49"/>
    </edge>
    <edge id=":10062482010_9" function="internal">
        <lane id=":10062482010_9_0" index="0" disallow="tram rail_urban rail rail_electric rail_fast ship container cable_car subway aircraft wheelchair scooter drone" speed="7.50" length="11.16" shape="1222.75,4343.73 1222.73,4340.52 1224.86,4337.99 1229.15,4336.23"/>
    </edge>
    <edge id=":10062482010_10" function="internal">
        <lane id=":10062482010_10_0" index="0" disallow="tram rail_urban rail rail_electric rail_fast ship container cable_car subway aircraft wheelchair scooter drone" speed="3.65" length="3.23" shape="1224.86,4346.49 1225.28,4345.69 1226.16,4345.55 1227.51,4346.05"/>
    </edge>
    <edge id=":10062482010_3" function="internal">
        <lane id=":10062482010_3_0" index="0" disallow="tram rail_urban rail rail_electric rail_fast ship container cable_car subway aircraft wheelchair scooter drone" speed="5.84" length="9.13" shape="1229.94,4339.33 1227.48,4340.34 1226.25,4341.80 1226.26,4343.70 1227.51,4346.05"/>
    </edge>
    <edge id=":10062482010_4" function="internal">
        <lane id=":10062482010_4_0" index="0" disallow="tram rail_urban rail rail_electric rail_fast ship container cable_car subway aircraft wheelchair scooter drone" speed="8.94" length="15.27" shape="1229.94,4339.33 1225.47,4339.97 1221.79,4339.40 1218.90,4337.63 1216.79,4334.66"/>
    </edge>
    <edge id=":10062482010_5" function="internal">
        <lane id=":10062482010_5_0" index="0" disallow="tram rail_urban rail rail_electric rail_fast ship container cable_car subway aircraft wheelchair scooter drone" speed="3.65" length="4.67" shape="1229.94,4339.33 1228.58,4338.85 1227.99,4338.18 1228.18,4337.30 1229.15,4336.23"/>
    </edge>
    <edge id=":10062482010_6" function="internal">
        <lane id=":10062482010_6_0" index="0" disallow="tram rail_urban rail rail_electric rail_fast ship container cable_car subway aircraft wheelchair scooter drone" speed="7.62" length="10.83" shape="1219.67,4333.27 1221.13,4335.25 1223.19,4336.41 1225.86,4336.73 1229.15,4336.23"/>
    </edge>
    <edge id=":10062482010_7" function="internal">
        <lane id=":10062482010_7_0" index="0" disallow="tram rail_urban rail rail_electric rail_fast ship container cable_car subway aircraft wheelchair scooter drone" speed="13.89" length="15.01" shape="1219.67,4333.27 1221.40,4336.60 1223.30,4339.83 1225.35,4342.98 1227.51,4346.05"/>
    </edge>
    <edge id=":10062482010_8" function="internal">
        <lane id=":10062482010_8_0" index="0" disallow="tram rail_urban rail rail_electric rail_fast ship container cable_car subway aircraft wheelchair scooter drone" speed="3.65" length="1.44" shape="1219.67,4333.27 1219.47,4334.70"/>
    </edge>
    <edge id=":10062482010_11" function="internal">
        <lane id=":10062482010_11_0" index="0" disallow="tram rail_urban rail rail_electric rail_fast ship container cable_car subway aircraft wheelchair scooter drone" speed="3.65" length="3.23" shape="1219.47,4334.70 1218.93,4335.41 1218.03,4335.39 1216.79,4334.66"/>
    </edge>
    <edge id=":10062482012_0" function="internal">
        <lane id=":10062482012_0_0" index="0" disallow="tram rail_urban rail rail_electric rail_fast ship container cable_car subway aircraft wheelchair scooter drone" speed="6.49" length="9.03" shape="1177.49,4253.08 1176.11,4251.02 1174.40,4249.90 1172.37,4249.73 1170.02,4250.51"/>
    </edge>
    <edge id=":10062482012_1" function="internal">
        <lane id=":10062482012_1_0" index="0" disallow="tram rail_urban rail rail_electric rail_fast ship container cable_car subway aircraft wheelchair scooter drone" speed="13.89" length="14.97" shape="1177.49,4253.08 1175.91,4249.68 1174.43,4246.25 1173.03,4242.78 1171.72,4239.27"/>
    </edge>
    <edge id=":10062482012_2" function="internal">
        <lane id=":10062482012_2_0" index="0" disallow="tram rail_urban rail rail_electric rail_fast ship container cable_car subway aircraft wheelchair scooter drone" speed="7.85" length="13.82" shape="1177.49,4253.08 1176.86,4249.83 1177.55,4246.31 1179.31,4243.17 1181.89,4241.08"/>
    </edge>
    <edge id=":10062482012_3" function="internal">
        <lane id=":10062482012_3_0" index="0" disallow="tram rail_urban rail rail_electric rail_fast ship container cable_car subway aircraft wheelchair scooter drone" speed="3.65" length="4.67" shape="1177.49,4253.08 1177.69,4251.65 1178.24,4250.94 1179.13,4250.95 1180.38,4251.69"/>
    </edge>
    <edge id=":10062482012_4" function="internal">
        <lane id=":10062482012_4_0" index="0" disallow="tram rail_urban rail rail_electric rail_fast ship container cable_car subway aircraft wheelchair scooter drone" speed="6.60" length="9.47" shape="1183.31,4243.95 1181.08,4245.38 1179.85,4247.14 1179.61,4249.24 1180.38,4251.69"/>
    </edge>
    <edge id=":10062482012_5" function="internal">
        <lane id=":10062482012_5_0" index="0" disallow="tram rail_urban rail rail_electric rail_fast ship container cable_car subway aircraft wheelchair scooter drone" speed="13.89" length="14.82" shape="1183.31,4243.95 1170.02,4250.51"/>
    </edge>
    <edge id=":10062482012_6" function="internal">
        <lane id=":10062482012_6_0" index="0" disallow="tram rail_urban rail rail_electric rail_fast ship container cable_car subway aircraft wheelchair scooter drone" speed="7.86" length="4.08" shape="1183.31,4243.95 1179.40,4245.12"/>
    </edge>
    <edge id=":10062482012_7" function="internal">
        <lane id=":10062482012_7_0" index="0" disallow="tram rail_urban rail rail_electric rail_fast ship container cable_car subway aircraft wheelchair scooter drone" speed="3.65" length="1.44" shape="1183.31,4243.95 1181.88,4243.77"/>
    </edge>
    <edge id=":10062482012_16" function="internal">
        <lane id=":10062482012_16_0" index="0" disallow="tram rail_urban rail rail_electric rail_fast ship container cable_car subway aircraft wheelchair scooter drone" speed="7.86" length="10.46" shape="1179.40,4245.12 1176.16,4244.73 1173.60,4242.78 1171.72,4239.27"/>
    </edge>
    <edge id=":10062482012_17" function="internal">
        <lane id=":10062482012_17_0" index="0" disallow="tram rail_urban rail rail_electric rail_fast ship container cable_car subway aircraft wheelchair scooter drone" speed="3.65" length="3.23" shape="1181.88,4243.77 1181.16,4243.23 1181.17,4242.33 1181.89,4241.08"/>
    </edge>
    <edge id=":10062482012_8" function="internal">
        <lane id=":10062482012_8_0" index="0" disallow="tram rail_urban rail rail_electric rail_fast ship container cable_car subway aircraft wheelchair scooter drone" speed="6.31" length="8.99" shape="1174.73,4238.19 1175.89,4240.36 1177.47,4241.57 1179.47,4241.81 1181.89,4241.08"/>
    </edge>
    <edge id=":10062482012_9" function="internal">
        <lane id=":10062482012_9_0" index="0" disallow="tram rail_urban rail rail_electric rail_fast ship container cable_car subway aircraft wheelchair scooter drone" speed="13.89" length="14.64" shape="1174.73,4238.19 1176.02,4241.65 1177.37,4245.01 1178.82,4248.34 1180.38,4251.69"/>
    </edge>
    <edge id=":10062482012_10" function="internal">
        <lane id=":10062482012_10_0" index="0" disallow="tram rail_urban rail rail_electric rail_fast ship container cable_car subway aircraft wheelchair scooter drone" speed="8.33" length="14.11" shape="1174.73,4238.19 1175.17,4241.59 1174.39,4245.18 1172.60,4248.35 1170.02,4250.51"/>
    </edge>
    <edge id=":10062482012_11" function="internal">
        <lane id=":10062482012_11_0" index="0" disallow="tram rail_urban rail rail_electric rail_fast ship container cable_car subway aircraft wheelchair scooter drone" speed="3.65" length="4.67" shape="1174.73,4238.19 1174.38,4239.59 1173.77,4240.24 1172.88,4240.13 1171.72,4239.27"/>
    </edge>
    <edge id=":10062482012_12" function="internal">
        <lane id=":10062482012_12_0" index="0" disallow="tram rail_urban rail rail_electric rail_fast ship container cable_car subway aircraft wheelchair scooter drone" speed="7.08" length="9.94" shape="1168.60,4247.64 1170.75,4246.15 1171.98,4244.26 1172.31,4241.97 1171.72,4239.27"/>
    </edge>
    <edge id=":10062482012_13" function="internal">
        <lane id=":10062482012_13_0" index="0" disallow="tram rail_urban rail rail_electric rail_fast ship container cable_car subway aircraft wheelchair scooter drone" speed="13.89" length="14.82" shape="1168.60,4247.64 1181.89,4241.08"/>
    </edge>
    <edge id=":10062482012_14" function="internal">
        <lane id=":10062482012_14_0" index="0" disallow="tram rail_urban rail rail_electric rail_fast ship container cable_car subway aircraft wheelchair scooter drone" speed="7.98" length="4.08" shape="1168.60,4247.64 1172.31,4246.42 1172.49,4246.44"/>
    </edge>
    <edge id=":10062482012_15" function="internal">
        <lane id=":10062482012_15_0" index="0" disallow="tram rail_urban rail rail_electric rail_fast ship container cable_car subway aircraft wheelchair scooter drone" speed="3.65" length="1.44" shape="1168.60,4247.64 1170.03,4247.82"/>
    </edge>
    <edge id=":10062482012_18" function="internal">
        <lane id=":10062482012_18_0" index="0" disallow="tram rail_urban rail rail_electric rail_fast ship container cable_car subway aircraft wheelchair scooter drone" speed="7.98" length="10.15" shape="1172.49,4246.44 1175.51,4246.69 1178.20,4248.44 1180.38,4251.69"/>
    </edge>
    <edge id=":10062482012_19" function="internal">
        <lane id=":10062482012_19_0" index="0" disallow="tram rail_urban rail rail_electric rail_fast ship container cable_car subway aircraft wheelchair scooter drone" speed="3.65" length="3.23" shape="1170.03,4247.82 1170.74,4248.36 1170.74,4249.26 1170.02,4250.51"/>
    </edge>
    <edge id=":10062482087_0" function="internal">
        <lane id=":10062482087_0_0" index="0" disallow="tram rail_urban rail rail_electric rail_fast ship container cable_car subway aircraft wheelchair scooter drone" speed="6.77" length="9.37" shape="1788.09,3722.85 1785.52,3722.28 1783.37,3722.59 1781.63,3723.79 1780.32,3725.86"/>
    </edge>
    <edge id=":10062482087_1" function="internal">
        <lane id=":10062482087_1_0" index="0" disallow="tram rail_urban rail rail_electric rail_fast ship container cable_car subway aircraft wheelchair scooter drone" speed="7.89" length="14.45" shape="1788.09,3722.85 1784.57,3720.96 1782.58,3718.42 1782.11,3715.23 1783.18,3711.38"/>
    </edge>
    <edge id=":10062482087_2" function="internal">
        <lane id=":10062482087_2_0" index="0" disallow="tram rail_urban rail rail_electric rail_fast ship container cable_car subway aircraft wheelchair scooter drone" speed="3.65" length="4.67" shape="1788.09,3722.85 1787.24,3721.69 1787.13,3720.80 1787.78,3720.18 1789.18,3719.84"/>
    </edge>
    <edge id=":10062482087_3" function="internal">
        <lane id=":10062482087_3_0" index="0" disallow="tram rail_urban rail rail_electric rail_fast ship container cable_car subway aircraft wheelchair scooter drone" speed="6.37" length="9.04" shape="1786.11,3712.66 1785.44,3715.07 1785.73,3717.07 1786.98,3718.66 1789.18,3719.84"/>
    </edge>
    <edge id=":10062482087_4" function="internal">
        <lane id=":10062482087_4_0" index="0" disallow="tram rail_urban rail rail_electric rail_fast ship container cable_car subway aircraft wheelchair scooter drone" speed="13.89" length="14.41" shape="1786.11,3712.66 1780.32,3725.86"/>
    </edge>
    <edge id=":10062482087_5" function="internal">
        <lane id=":10062482087_5_0" index="0" disallow="tram rail_urban rail rail_electric rail_fast ship container cable_car subway aircraft wheelchair scooter drone" speed="3.65" length="1.44" shape="1786.11,3712.66 1784.90,3713.44"/>
    </edge>
    <edge id=":10062482087_9" function="internal">
        <lane id=":10062482087_9_0" index="0" disallow="tram rail_urban rail rail_electric rail_fast ship container cable_car subway aircraft wheelchair scooter drone" speed="3.65" length="3.23" shape="1784.90,3713.44 1784.00,3713.49 1783.43,3712.80 1783.18,3711.38"/>
    </edge>
    <edge id=":10062482087_6" function="internal">
        <lane id=":10062482087_6_0" index="0" disallow="tram rail_urban rail rail_electric rail_fast ship container cable_car subway aircraft wheelchair scooter drone" speed="13.89" length="14.41" shape="1777.39,3724.58 1783.18,3711.38"/>
    </edge>
    <edge id=":10062482087_7" function="internal">
        <lane id=":10062482087_7_0" index="0" disallow="tram rail_urban rail rail_electric rail_fast ship container cable_car subway aircraft wheelchair scooter drone" speed="8.22" length="3.96" shape="1777.39,3724.58 1779.41,3721.36 1779.54,3721.27"/>
    </edge>
    <edge id=":10062482087_8" function="internal">
        <lane id=":10062482087_8_0" index="0" disallow="tram rail_urban rail rail_electric rail_fast ship container cable_car subway aircraft wheelchair scooter drone" speed="3.65" length="1.44" shape="1777.39,3724.58 1778.60,3723.80"/>
    </edge>
    <edge id=":10062482087_10" function="internal">
        <lane id=":10062482087_10_0" index="0" disallow="tram rail_urban rail rail_electric rail_fast ship container cable_car subway aircraft wheelchair scooter drone" speed="8.22" length="10.33" shape="1779.54,3721.27 1782.04,3719.50 1785.30,3719.00 1789.18,3719.84"/>
    </edge>
    <edge id=":10062482087_11" function="internal">
        <lane id=":10062482087_11_0" index="0" disallow="tram rail_urban rail rail_electric rail_fast ship container cable_car subway aircraft wheelchair scooter drone" speed="3.65" length="3.23" shape="1778.60,3723.80 1779.50,3723.76 1780.07,3724.44 1780.32,3725.86"/>
    </edge>
    <edge id=":10062482516_0" function="internal">
        <lane id=":10062482516_0_0" index="0" disallow="tram rail_urban rail rail_electric rail_fast ship container cable_car subway aircraft wheelchair scooter drone" speed="13.89" length="15.17" shape="1491.66,3725.65 1490.46,3722.06 1489.22,3718.46 1487.87,3714.90 1486.35,3711.45"/>
    </edge>
    <edge id=":10062482516_1" function="internal">
        <lane id=":10062482516_1_0" index="0" disallow="tram rail_urban rail rail_electric rail_fast ship container cable_car subway aircraft wheelchair scooter drone" speed="7.43" length="4.89" shape="1491.66,3725.65 1490.75,3720.84"/>
    </edge>
    <edge id=":10062482516_2" function="internal">
        <lane id=":10062482516_2_0" index="0" disallow="tram rail_urban rail rail_electric rail_fast ship container cable_car subway aircraft wheelchair scooter drone" speed="3.65" length="1.44" shape="1491.66,3725.65 1492.04,3724.25"/>
    </edge>
    <edge id=":10062482516_9" function="internal">
        <lane id=":10062482516_9_0" index="0" disallow="tram rail_urban rail rail_electric rail_fast ship container cable_car subway aircraft wheelchair scooter drone" speed="7.43" length="11.57" shape="1490.75,3720.84 1491.76,3717.66 1494.72,3716.11 1499.61,3716.17"/>
    </edge>
    <edge id=":10062482516_10" function="internal">
        <lane id=":10062482516_10_0" index="0" disallow="tram rail_urban rail rail_electric rail_fast ship container cable_car subway aircraft wheelchair scooter drone" speed="3.65" length="3.23" shape="1492.04,3724.25 1492.67,3723.62 1493.56,3723.74 1494.70,3724.63"/>
    </edge>
    <edge id=":10062482516_3" function="internal">
        <lane id=":10062482516_3_0" index="0" disallow="tram rail_urban rail rail_electric rail_fast ship container cable_car subway aircraft wheelchair scooter drone" speed="5.72" length="9.19" shape="1499.13,3719.34 1496.40,3719.30 1494.75,3720.17 1494.18,3721.94 1494.70,3724.63"/>
    </edge>
    <edge id=":10062482516_4" function="internal">
        <lane id=":10062482516_4_0" index="0" disallow="tram rail_urban rail rail_electric rail_fast ship container cable_car subway aircraft wheelchair scooter drone" speed="11.16" length="15.63" shape="1499.13,3719.34 1494.69,3718.30 1491.08,3716.64 1488.30,3714.35 1486.35,3711.45"/>
    </edge>
    <edge id=":10062482516_5" function="internal">
        <lane id=":10062482516_5_0" index="0" disallow="tram rail_urban rail rail_electric rail_fast ship container cable_car subway aircraft wheelchair scooter drone" speed="3.65" length="4.67" shape="1499.13,3719.34 1498.07,3718.37 1497.79,3717.52 1498.30,3716.79 1499.61,3716.17"/>
    </edge>
    <edge id=":10062482516_6" function="internal">
        <lane id=":10062482516_6_0" index="0" disallow="tram rail_urban rail rail_electric rail_fast ship container cable_car subway aircraft wheelchair scooter drone" speed="9.90" length="12.17" shape="1489.40,3710.41 1490.85,3712.48 1493.04,3714.13 1495.96,3715.36 1499.61,3716.17"/>
    </edge>
    <edge id=":10062482516_7" function="internal">
        <lane id=":10062482516_7_0" index="0" disallow="tram rail_urban rail rail_electric rail_fast ship container cable_car subway aircraft wheelchair scooter drone" speed="13.89" length="15.18" shape="1489.40,3710.41 1490.91,3713.87 1492.26,3717.44 1493.50,3721.04 1494.70,3724.63"/>
    </edge>
    <edge id=":10062482516_8" function="internal">
        <lane id=":10062482516_8_0" index="0" disallow="tram rail_urban rail rail_electric rail_fast ship container cable_car subway aircraft wheelchair scooter drone" speed="3.66" length="1.45" shape="1489.40,3710.41 1489.03,3711.82"/>
    </edge>
    <edge id=":10062482516_11" function="internal">
        <lane id=":10062482516_11_0" index="0" disallow="tram rail_urban rail rail_electric rail_fast ship container cable_car subway aircraft wheelchair scooter drone" speed="3.66" length="3.25" shape="1489.03,3711.82 1488.40,3712.46 1487.50,3712.33 1486.35,3711.45"/>
    </edge>
    <edge id=":10062497589_0" function="internal">
        <lane id=":10062497589_0_0" index="0" disallow="tram rail_urban rail rail_electric rail_fast ship container cable_car subway aircraft wheelchair scooter drone" speed="13.89" length="0.10" shape="911.72,3680.64 911.75,3680.73"/>
    </edge>
    <edge id=":10062497589_1" function="internal">
        <lane id=":10062497589_1_0" index="0" disallow="tram rail_urban rail rail_electric rail_fast ship container cable_car subway aircraft wheelchair scooter drone" speed="13.89" length="0.10" shape="914.80,3679.76 914.83,3679.85"/>
    </edge>
    <edge id=":10062497595_0" function="internal">
        <lane id=":10062497595_0_0" index="0" disallow="tram rail_urban rail rail_electric rail_fast ship container cable_car subway aircraft wheelchair scooter drone" speed="9.10" length="11.76" shape="788.14,3548.99 784.92,3550.73 782.58,3552.68 781.12,3554.84 780.52,3557.21"/>
    </edge>
    <edge id=":10062497595_1" function="internal">
        <lane id=":10062497595_1_0" index="0" disallow="tram rail_urban rail rail_electric rail_fast ship container cable_car subway aircraft wheelchair scooter drone" speed="7.97" length="16.06" shape="788.14,3548.99 784.07,3550.05 780.79,3549.26 778.29,3546.60 776.59,3542.07"/>
    </edge>
    <edge id=":10062497595_2" function="internal">
        <lane id=":10062497595_2_0" index="0" disallow="tram rail_urban rail rail_electric rail_fast ship container cable_car subway aircraft wheelchair scooter drone" speed="3.65" length="4.67" shape="788.14,3548.99 786.72,3548.75 786.02,3548.18 786.06,3547.29 786.83,3546.06"/>
    </edge>
    <edge id=":10062497595_3" function="internal">
        <lane id=":10062497595_3_0" index="0" disallow="tram rail_urban rail rail_electric rail_fast ship container cable_car subway aircraft wheelchair scooter drone" speed="6.25" length="9.43" shape="779.92,3542.26 780.92,3544.83 782.40,3546.32 784.37,3546.74 786.83,3546.06"/>
    </edge>
    <edge id=":10062497595_4" function="internal">
        <lane id=":10062497595_4_0" index="0" disallow="tram rail_urban rail rail_electric rail_fast ship container cable_car subway aircraft wheelchair scooter drone" speed="13.89" length="15.02" shape="779.92,3542.26 780.55,3545.94 780.78,3549.69 780.73,3553.45 780.52,3557.21"/>
    </edge>
    <edge id=":10062497595_5" function="internal">
        <lane id=":10062497595_5_0" index="0" disallow="tram rail_urban rail rail_electric rail_fast ship container cable_car subway aircraft wheelchair scooter drone" speed="3.70" length="1.38" shape="779.92,3542.26 779.10,3543.36"/>
    </edge>
    <edge id=":10062497595_9" function="internal">
        <lane id=":10062497595_9_0" index="0" disallow="tram rail_urban rail rail_electric rail_fast ship container cable_car subway aircraft wheelchair scooter drone" speed="3.70" length="3.50" shape="779.10,3543.36 779.02,3543.46 778.16,3543.83 777.35,3543.37 776.59,3542.07"/>
    </edge>
    <edge id=":10062497595_6" function="internal">
        <lane id=":10062497595_6_0" index="0" disallow="tram rail_urban rail rail_electric rail_fast ship container cable_car subway aircraft wheelchair scooter drone" speed="13.89" length="15.01" shape="777.33,3557.01 777.51,3553.25 777.51,3549.49 777.24,3545.76 776.59,3542.07"/>
    </edge>
    <edge id=":10062497595_7" function="internal">
        <lane id=":10062497595_7_0" index="0" disallow="tram rail_urban rail rail_electric rail_fast ship container cable_car subway aircraft wheelchair scooter drone" speed="10.29" length="3.53" shape="777.33,3557.01 778.09,3553.74 778.18,3553.59"/>
    </edge>
    <edge id=":10062497595_8" function="internal">
        <lane id=":10062497595_8_0" index="0" disallow="tram rail_urban rail rail_electric rail_fast ship container cable_car subway aircraft wheelchair scooter drone" speed="3.65" length="1.44" shape="777.33,3557.01 778.20,3555.86"/>
    </edge>
    <edge id=":10062497595_10" function="internal">