<?xml version="1.0" encoding="UTF-8"?>

<!-- generated on 2024-05-30 16:42:06.148648 by randomTrips.py UNKNOWN
<configuration>
    <net-file value="map.net.xml"/>
    <output-trip-file value="map.trips.xml"/>
    <end value="100.0"/>
</configuration>
-->

<routes xmlns:xsi="http://www.w3.org/2001/XMLSchema-instance" xsi:noNamespaceSchemaLocation="http://sumo.dlr.de/xsd/routes_file.xsd">
    <trip id="0" depart="0.00" from="321434796#0" to="-149723897#3"/>
    <trip id="1" depart="1.00" from="-399725118#0" to="-370526839#4"/>
    <trip id="2" depart="2.00" from="370526836" to="321434812#0"/>
    <trip id="3" depart="3.00" from="399732919#1" to="-321121526#1"/>
    <trip id="4" depart="4.00" from="-399736151#1" to="-149723909"/>
    <trip id="5" depart="5.00" from="-370526839#0" to="149723883#0"/>
    <trip id="6" depart="6.00" from="-149723897#1" to="-321434825#4"/>
    <trip id="7" depart="7.00" from="321434800#0" to="149724078#0"/>
    <trip id="8" depart="8.00" from="-370526839#3" to="321121529"/>
    <trip id="9" depart="9.00" from="399725120#0" to="-1098937829#1"/>
    <trip id="10" depart="10.00" from="399723918#1" to="321434822#3"/>
    <trip id="11" depart="11.00" from="-399728995#0" to="-321434808#0"/>
    <trip id="12" depart="12.00" from="399736150#2" to="-399728993#1"/>
    <trip id="13" depart="13.00" from="-321121533#4" to="-321124243#1"/>
    <trip id="14" depart="14.00" from="399726598" to="321124243#3"/>
    <trip id="15" depart="15.00" from="399725118#1" to="370526839#0"/>
    <trip id="16" depart="16.00" from="149723960#1" to="399736165"/>
    <trip id="17" depart="17.00" from="-399732933#1" to="189387155#3"/>
    <trip id="18" depart="18.00" from="399725893#1" to="321124254#2"/>
    <trip id="19" depart="19.00" from="399728984#1" to="321121521#1"/>
    <trip id="20" depart="20.00" from="321434822#1" to="-149724076#3"/>
    <trip id="21" depart="21.00" from="-370526844" to="-399725286"/>
    <trip id="22" depart="22.00" from="-321121521#1" to="-370526847#1"/>
    <trip id="23" depart="23.00" from="-321124243#5" to="-399725119"/>
    <trip id="24" depart="24.00" from="321434794#8" to="-399732926#0"/>
    <trip id="25" depart="25.00" from="-399732928" to="-370526832#1"/>
    <trip id="26" depart="26.00" from="-399723463#6" to="399734601#0"/>
    <trip id="27" depart="27.00" from="321434799#4" to="321124250#1"/>
    <trip id="28" depart="28.00" from="-321434813#0" to="370526838"/>
    <trip id="29" depart="29.00" from="-321434811#2" to="-399732937#0"/>
    <trip id="30" depart="30.00" from="676284370#1" to="321434799#3"/>
    <trip id="31" depart="31.00" from="189387156" to="321434816#2"/>
    <trip id="32" depart="32.00" from="399726597#2" to="399723463#11"/>
    <trip id="33" depart="33.00" from="-370526845#1" to="-149723933#2"/>
    <trip id="34" depart="34.00" from="-399728977" to="-399723463#6"/>
    <trip id="35" depart="35.00" from="-370526833#2" to="399735178"/>
    <trip id="36" depart="36.00" from="399728993#1" to="-399728979#0"/>
    <trip id="37" depart="37.00" from="321434801#2" to="-399734596"/>
    <trip id="38" depart="38.00" from="399732933#0" to="1092566445#1"/>
    <trip id="39" depart="39.00" from="-399723463#3" to="-399722820#6"/>
    <trip id="40" depart="40.00" from="189387169#0" to="-399723463#0"/>
    <trip id="41" depart="41.00" from="321121521#3" to="399732924#1"/>
    <trip id="42" depart="42.00" from="-399734597" to="-370526837"/>
    <trip id="43" depart="43.00" from="676284370#9" to="149723885#2"/>
    <trip id="44" depart="44.00" from="-321121533#1" to="-149724076#5"/>
    <trip id="45" depart="45.00" from="-321124254#1" to="321434794#6"/>
    <trip id="46" depart="46.00" from="399723465#1" to="-399736154#4"/>
    <trip id="47" depart="47.00" from="-189387169#4" to="-399732937#3"/>
    <trip id="48" depart="48.00" from="676284370#8" to="149723953#2"/>
    <trip id="49" depart="49.00" from="399736161#1" to="399728987#1"/>
    <trip id="50" depart="50.00" from="-1098937837#2" to="370526832#3"/>
    <trip id="51" depart="51.00" from="321434811#5" to="149723980#1"/>
    <trip id="52" depart="52.00" from="-399723463#5" to="321434799#4"/>
    <trip id="53" depart="53.00" from="-321124255#0" to="-399739038#0"/>
    <trip id="54" depart="54.00" from="-676284370#1" to="399736150#2"/>
    <trip id="55" depart="55.00" from="399728993#0" to="-399723463#1"/>
    <trip id="56" depart="56.00" from="1266815485" to="-321434817#0"/>
    <trip id="57" depart="57.00" from="399732932#1" to="399728992#2"/>
    <trip id="58" depart="58.00" from="-399725893#4" to="321434799#2"/>
    <trip id="59" depart="59.00" from="321124243#2" to="-321434807#1"/>
    <trip id="60" depart="60.00" from="399722820#3" to="149724076#2"/>
    <trip id="61" depart="61.00" from="399722824" to="149723956#1"/>
    <trip id="62" depart="62.00" from="-1098934621" to="-399728985#1"/>
    <trip id="63" depart="63.00" from="-1098937868" to="399734593"/>
    <trip id="64" depart="64.00" from="399728995#1" to="399726595#1"/>
    <trip id="65" depart="65.00" from="-399726596#3" to="-189387164"/>
    <trip id="66" depart="66.00" from="399728995#0" to="399735182#1"/>
    <trip id="67" depart="67.00" from="-321121522" to="1098937871#1"/>
    <trip id="68" depart="68.00" from="-189387172#1" to="399722822#3"/>
    <trip id="69" depart="69.00" from="399722821" to="-321434797#1"/>
    <trip id="70" depart="70.00" from="1098937829#1" to="189387155#0"/>
    <trip id="71" depart="71.00" from="-399723463#3" to="399728994"/>
    <trip id="72" depart="72.00" from="-399736152" to="-370526833#1"/>
    <trip id="73" depart="73.00" from="149723974#2" to="370526839#0"/>
    <trip id="74" depart="74.00" from="-332891545#1" to="-399726599#4"/>
    <trip id="75" depart="75.00" from="676284370#6" to="321434801#4"/>
    <trip id="76" depart="76.00" from="-399736165" to="149723897#3"/>
    <trip id="77" depart="77.00" from="-321434794#8" to="-370526840#0"/>
    <trip id="78" depart="78.00" from="-399728993#0" to="321121527"/>
    <trip id="79" depart="79.00" from="-370526845#2" to="-370526839#0"/>
    <trip id="80" depart="80.00" from="-189387176" to="321434795#0"/>
    <trip id="81" depart="81.00" from="-370526845#1" to="399732930#0"/>
    <trip id="82" depart="82.00" from="399728982#2" to="-189387176"/>
    <trip id="83" depart="83.00" from="-370526848#4" to="321434810#2"/>
    <trip id="84" depart="84.00" from="-370526835#3" to="-321434799#4"/>
    <trip id="85" depart="85.00" from="399734596" to="189387181#3"/>
    <trip id="86" depart="86.00" from="1098937828#0" to="399723465#2"/>
    <trip id="87" depart="87.00" from="399725118#1" to="-321434822#2"/>
    <trip id="88" depart="88.00" from="-321124243#0" to="-399736163#0"/>
    <trip id="89" depart="89.00" from="-399736154#1" to="1098937828#1"/>
    <trip id="90" depart="90.00" from="370526832#2" to="321434811#5"/>
    <trip id="91" depart="91.00" from="622971653#0" to="-321124243#3"/>
    <trip id="92" depart="92.00" from="-399734600" to="-399728996#0"/>
    <trip id="93" depart="93.00" from="399728984#1" to="-399722822#0"/>
    <trip id="94" depart="94.00" from="-321434822#3" to="-676284370#11"/>
    <trip id="95" depart="95.00" from="-399736151#1" to="-399725119"/>
    <trip id="96" depart="96.00" from="-399722822#4" to="399734589#0"/>
    <trip id="97" depart="97.00" from="-399739038#2" to="399728987#1"/>
    <trip id="98" depart="98.00" from="189387147#0" to="-189387147#3"/>
    <trip id="99" depart="99.00" from="864146800#1" to="399726597#0"/>
</routes>
